Circuit: * C:\Users\Mini\OneDrive - Universidad de Extremadura\Escritorio\TFG\Circuito\Offse_positivo\Offset.asc


Date: Fri Mar 25 11:08:10 2022
Total elapsed time: 0.063 seconds.

tnom = 27
temp = 27
method = trap
totiter = 2003
traniter = 0
tranpoints = 0
accept = 0
rejected = 0
matrix size = 5
fillins = 0
solver = Normal
Matrix Compiler1: 132 bytes object code size  0.4/0.2/[0.2]
Matrix Compiler2: 295 bytes object code size  0.3/0.4/[0.2]

