Circuit: * C:\Users\Aitor\OneDrive - Universidad de Extremadura\Escritorio\TFG\Primera_Parte\Electrónica\Circuito\Carga activa(1).asc

WARNING: Node PWM is floating.

WARNING: Less than two connections to node PWM.  This node is used by R14.
.step isolar=0.05
Direct Newton iteration failed to find .op point.  (Use ".option noopiter" to skip.)
Starting Gmin stepping
Gmin = 10
Gmin = 1.07374
Gmin = 0.115292
Gmin = 0.0123794
Gmin = 0.00132923
Gmin = 0.000142725
Gmin = 1.5325e-005
Gmin = 1.6455e-006
Gmin = 1.76685e-007
Gmin = 1.89714e-008
Gmin = 2.03704e-009
Gmin = 2.18725e-010
Gmin = 2.34854e-011
Gmin = 2.52173e-012
Gmin = 2.70769e-013
Gmin = 0
Gmin stepping succeeded in finding the operating point.

Direct Newton iteration failed to find .op point.  (Use ".option noopiter" to skip.)
Starting Gmin stepping
Gmin = 10
Gmin = 1.07374
Gmin = 0.115292
Gmin = 0.0123794
Gmin = 0.00132923
Gmin = 0.000142725
Gmin = 1.5325e-005
Gmin = 1.6455e-006
Gmin = 1.76685e-007
Gmin = 1.89714e-008
Gmin = 2.03704e-009
Gmin = 2.18725e-010
Gmin = 2.34854e-011
Gmin = 2.52173e-012
Gmin = 2.70769e-013
Gmin = 0
Gmin stepping succeeded in finding the operating point.

Direct Newton iteration failed to find .op point.  (Use ".option noopiter" to skip.)
Starting Gmin stepping
Gmin = 10
Gmin = 1.07374
Gmin = 0.115292
Gmin = 0.0123794
Gmin = 0.00132923
Gmin = 0.000142725
Gmin = 1.5325e-005
Gmin = 1.6455e-006
Gmin = 1.76685e-007
Gmin = 1.89714e-008
vernier = 0.5
vernier = 0.25
vernier = 0.125
vernier = 0.0625
vernier = 0.03125
vernier = 0.015625
Gmin = 9.71334e-009
vernier = 0.0078125
vernier = 0.00390625
vernier = 0.00195313
vernier = 0.000976563
vernier = 0.000488281
Gmin = 0
Gmin stepping failed

Starting source stepping with srcstepmethod=0
Source Step = 3.0303%
vernier = 0.25
Source Step = 0.0177557%
Starting source stepping with srcstepmethod=1
Source Step = 3.0303%
Source Step = 33.3333%
Source Step = 63.6364%
Source Step = 78.7997%
vernier = 0.000976563
Source stepping failed

Pseudo Transient succeeded in finding the operating point at 47.2055 s.
.step isolar=0.1
.step isolar=0.15
.step isolar=0.2
.step isolar=0.25
.step isolar=0.3
.step isolar=0.35
.step isolar=0.4
.step isolar=0.45
.step isolar=0.5
.step isolar=0.55
.step isolar=0.6
.step isolar=0.65
.step isolar=0.7

Date: Wed Mar 30 23:14:12 2022
Total elapsed time: 1.232 seconds.

tnom = 27
temp = 27
method = trap
totiter = 28468
traniter = 0
tranpoints = 0
accept = 0
rejected = 546
matrix size = 42
fillins = 18
solver = Normal
Matrix Compiler1: 2.87 KB object code size  0.6/0.3/[0.3]
Matrix Compiler2: off  [0.2]/0.3/0.4

