Circuit: * C:\Users\Mini\OneDrive - Universidad de Extremadura\Universidad\TFG\Electrónica\Circuito\Solar_model.asc


Date: Tue Nov 23 11:06:27 2021
Total elapsed time: 0.541 seconds.

tnom = 27
temp = 27
method = trap
totiter = 14004
traniter = 0
tranpoints = 0
accept = 0
rejected = 0
matrix size = 32
fillins = 0
solver = Normal
Matrix Compiler1: 1.45 KB object code size  1.1/0.9/[0.7]
Matrix Compiler2: 2.24 KB object code size  0.7/1.2/[0.6]

