Circuit: * C:\Users\Aitor\OneDrive - Universidad de Extremadura\Escritorio\TFG\Circuito\Offset_negativo\Sim_Offset_negativo.asc

Limiting rise time of source v1 to 5e-005
Limiting fall time of source v1 to 5e-005
Direct Newton iteration for .op point succeeded.

Date: Sat Mar 26 12:36:24 2022
Total elapsed time: 2.826 seconds.

tnom = 27
temp = 27
method = modified trap
totiter = 2320120
traniter = 2320104
tranpoints = 1124529
accept = 826718
rejected = 297811
matrix size = 10
fillins = 0
solver = Normal
Matrix Compiler1:      21 opcodes  0.1/[0.1]/0.1
Matrix Compiler2: off  [0.1]/0.1/0.1

