Circuit: * C:\Users\Mini\OneDrive - Universidad de Extremadura\Escritorio\TFG\Circuito\Offset_negativo\Sim_Offset_negativo.asc

Limiting rise time of source v1 to 5e-005
Limiting fall time of source v1 to 5e-005
Direct Newton iteration for .op point succeeded.

Date: Fri Mar 25 11:59:22 2022
Total elapsed time: 1.986 seconds.

tnom = 27
temp = 27
method = modified trap
totiter = 241605
traniter = 241589
tranpoints = 115879
accept = 84167
rejected = 31712
matrix size = 10
fillins = 0
solver = Normal
Matrix Compiler1: 346 bytes object code size  0.4/0.3/[0.2]
Matrix Compiler2: 672 bytes object code size  0.3/0.4/[0.3]

