Circuit: * C:\Users\Mini\OneDrive - Universidad de Extremadura\Escritorio\TFG\Circuito\Tensión_panel\Tension.asc


Date: Fri Mar 25 11:59:50 2022
Total elapsed time: 0.062 seconds.

tnom = 27
temp = 27
method = trap
totiter = 2003
traniter = 0
tranpoints = 0
accept = 0
rejected = 0
matrix size = 5
fillins = 0
solver = Normal
Matrix Compiler1: 114 bytes object code size  0.2/0.1/[0.1]
Matrix Compiler2: 301 bytes object code size  0.2/0.2/[0.1]

